*SPEF "ieee 1481-1999"
*DESIGN "alu"
*DATE "11:13:58 Monday February 09, 2026"
*VENDOR "The OpenROAD Project"
*PROGRAM "OpenROAD"
*VERSION "edf00dff99f6c40d67a30c0e22a8191c5d2ed9d6"
*DESIGN_FLOW "NAME_SCOPE LOCAL" "PIN_CAP NONE"
*DIVIDER /
*DELIMITER :
*BUS_DELIMITER []
*T_UNIT 1 NS
*C_UNIT 1 PF
*R_UNIT 1 OHM
*L_UNIT 1 HENRY

*NAME_MAP
*3 alu_op[0]
*4 alu_op[1]
*5 alu_op[2]
*6 alu_op[3]
*7 carry_in
*8 carry_out
*9 operand_a[0]
*10 operand_a[1]
*11 operand_a[2]
*12 operand_a[3]
*13 operand_b[0]
*14 operand_b[1]
*15 operand_b[2]
*16 operand_b[3]
*17 result[0]
*18 result[1]
*19 result[2]
*20 result[3]
*21 zero
*22 _000_
*23 _001_
*24 _002_
*25 _003_
*26 _004_
*27 _005_
*28 _006_
*29 _007_
*30 _008_
*31 _009_
*32 _010_
*33 _011_
*34 _012_
*35 _013_
*36 _014_
*37 _015_
*38 _016_
*39 _017_
*40 _018_
*41 _019_
*42 _020_
*43 _021_
*44 _022_
*45 _023_
*46 _024_
*47 _025_
*48 _026_
*49 _027_
*50 _028_
*51 _029_
*52 _030_
*53 _031_
*54 _032_
*55 _033_
*56 _034_
*57 _035_
*58 _036_
*59 _037_
*60 _038_
*61 _039_
*62 _040_
*63 _041_
*64 _042_
*65 _043_
*66 _044_
*67 _045_
*68 _046_
*69 _047_
*70 _048_
*71 _049_
*72 _050_
*73 _051_
*74 _052_
*75 _053_
*76 _054_
*77 _055_
*78 _056_
*79 _057_
*80 _058_
*81 _059_
*82 _060_
*83 _061_
*84 _062_
*85 _063_
*86 _064_
*87 _065_
*88 _066_
*89 net1
*90 net10
*91 net11
*92 net12
*93 net13
*94 net14
*95 net15
*96 net16
*97 net17
*98 net18
*99 net19
*100 net2
*101 net20
*102 net3
*103 net4
*104 net5
*105 net6
*106 net7
*107 net8
*108 net9
*109 ANTENNA_1
*110 FILLER_0_109
*111 FILLER_0_111
*112 FILLER_0_113
*113 FILLER_0_125
*114 FILLER_0_137
*115 FILLER_0_139
*116 FILLER_0_141
*117 FILLER_0_15
*118 FILLER_0_153
*119 FILLER_0_165
*120 FILLER_0_167
*121 FILLER_0_169
*122 FILLER_0_181
*123 FILLER_0_193
*124 FILLER_0_195
*125 FILLER_0_197
*126 FILLER_0_203
*127 FILLER_0_205
*128 FILLER_0_210
*129 FILLER_0_222
*130 FILLER_0_225
*131 FILLER_0_233
*132 FILLER_0_248
*133 FILLER_0_253
*134 FILLER_0_265
*135 FILLER_0_27
*136 FILLER_0_277
*137 FILLER_0_279
*138 FILLER_0_281
*139 FILLER_0_29
*140 FILLER_0_293
*141 FILLER_0_3
*142 FILLER_0_305
*143 FILLER_0_307
*144 FILLER_0_309
*145 FILLER_0_321
*146 FILLER_0_333
*147 FILLER_0_335
*148 FILLER_0_337
*149 FILLER_0_349
*150 FILLER_0_361
*151 FILLER_0_363
*152 FILLER_0_365
*153 FILLER_0_377
*154 FILLER_0_389
*155 FILLER_0_391
*156 FILLER_0_393
*157 FILLER_0_405
*158 FILLER_0_41
*159 FILLER_0_53
*160 FILLER_0_55
*161 FILLER_0_57
*162 FILLER_0_69
*163 FILLER_0_81
*164 FILLER_0_83
*165 FILLER_0_85
*166 FILLER_0_97
*167 FILLER_10_109
*168 FILLER_10_121
*169 FILLER_10_133
*170 FILLER_10_137
*171 FILLER_10_139
*172 FILLER_10_141
*173 FILLER_10_15
*174 FILLER_10_153
*175 FILLER_10_165
*176 FILLER_10_177
*177 FILLER_10_189
*178 FILLER_10_193
*179 FILLER_10_195
*180 FILLER_10_197
*181 FILLER_10_209
*182 FILLER_10_221
*183 FILLER_10_233
*184 FILLER_10_245
*185 FILLER_10_249
*186 FILLER_10_251
*187 FILLER_10_253
*188 FILLER_10_265
*189 FILLER_10_27
*190 FILLER_10_277
*191 FILLER_10_289
*192 FILLER_10_29
*193 FILLER_10_3
*194 FILLER_10_301
*195 FILLER_10_305
*196 FILLER_10_307
*197 FILLER_10_309
*198 FILLER_10_321
*199 FILLER_10_333
*200 FILLER_10_345
*201 FILLER_10_357
*202 FILLER_10_361
*203 FILLER_10_363
*204 FILLER_10_365
*205 FILLER_10_377
*206 FILLER_10_389
*207 FILLER_10_401
*208 FILLER_10_405
*209 FILLER_10_41
*210 FILLER_10_53
*211 FILLER_10_65
*212 FILLER_10_77
*213 FILLER_10_81
*214 FILLER_10_83
*215 FILLER_10_85
*216 FILLER_10_97
*217 FILLER_11_105
*218 FILLER_11_109
*219 FILLER_11_111
*220 FILLER_11_113
*221 FILLER_11_125
*222 FILLER_11_137
*223 FILLER_11_149
*224 FILLER_11_15
*225 FILLER_11_161
*226 FILLER_11_165
*227 FILLER_11_167
*228 FILLER_11_169
*229 FILLER_11_181
*230 FILLER_11_193
*231 FILLER_11_205
*232 FILLER_11_217
*233 FILLER_11_221
*234 FILLER_11_223
*235 FILLER_11_225
*236 FILLER_11_237
*237 FILLER_11_249
*238 FILLER_11_261
*239 FILLER_11_27
*240 FILLER_11_273
*241 FILLER_11_277
*242 FILLER_11_279
*243 FILLER_11_281
*244 FILLER_11_293
*245 FILLER_11_3
*246 FILLER_11_305
*247 FILLER_11_317
*248 FILLER_11_329
*249 FILLER_11_333
*250 FILLER_11_335
*251 FILLER_11_337
*252 FILLER_11_349
*253 FILLER_11_361
*254 FILLER_11_373
*255 FILLER_11_385
*256 FILLER_11_389
*257 FILLER_11_39
*258 FILLER_11_391
*259 FILLER_11_393
*260 FILLER_11_405
*261 FILLER_11_51
*262 FILLER_11_55
*263 FILLER_11_57
*264 FILLER_11_69
*265 FILLER_11_81
*266 FILLER_11_93
*267 FILLER_12_109
*268 FILLER_12_121
*269 FILLER_12_133
*270 FILLER_12_137
*271 FILLER_12_139
*272 FILLER_12_141
*273 FILLER_12_15
*274 FILLER_12_153
*275 FILLER_12_165
*276 FILLER_12_177
*277 FILLER_12_189
*278 FILLER_12_193
*279 FILLER_12_195
*280 FILLER_12_197
*281 FILLER_12_209
*282 FILLER_12_221
*283 FILLER_12_233
*284 FILLER_12_245
*285 FILLER_12_249
*286 FILLER_12_251
*287 FILLER_12_253
*288 FILLER_12_265
*289 FILLER_12_27
*290 FILLER_12_277
*291 FILLER_12_289
*292 FILLER_12_29
*293 FILLER_12_3
*294 FILLER_12_301
*295 FILLER_12_305
*296 FILLER_12_307
*297 FILLER_12_309
*298 FILLER_12_321
*299 FILLER_12_333
*300 FILLER_12_345
*301 FILLER_12_357
*302 FILLER_12_361
*303 FILLER_12_363
*304 FILLER_12_365
*305 FILLER_12_377
*306 FILLER_12_389
*307 FILLER_12_401
*308 FILLER_12_405
*309 FILLER_12_41
*310 FILLER_12_53
*311 FILLER_12_65
*312 FILLER_12_77
*313 FILLER_12_81
*314 FILLER_12_83
*315 FILLER_12_85
*316 FILLER_12_97
*317 FILLER_13_105
*318 FILLER_13_109
*319 FILLER_13_111
*320 FILLER_13_113
*321 FILLER_13_125
*322 FILLER_13_137
*323 FILLER_13_149
*324 FILLER_13_15
*325 FILLER_13_161
*326 FILLER_13_165
*327 FILLER_13_167
*328 FILLER_13_169
*329 FILLER_13_181
*330 FILLER_13_193
*331 FILLER_13_205
*332 FILLER_13_217
*333 FILLER_13_221
*334 FILLER_13_223
*335 FILLER_13_225
*336 FILLER_13_237
*337 FILLER_13_249
*338 FILLER_13_261
*339 FILLER_13_27
*340 FILLER_13_273
*341 FILLER_13_277
*342 FILLER_13_279
*343 FILLER_13_281
*344 FILLER_13_293
*345 FILLER_13_3
*346 FILLER_13_305
*347 FILLER_13_317
*348 FILLER_13_329
*349 FILLER_13_333
*350 FILLER_13_335
*351 FILLER_13_337
*352 FILLER_13_349
*353 FILLER_13_361
*354 FILLER_13_373
*355 FILLER_13_385
*356 FILLER_13_389
*357 FILLER_13_39
*358 FILLER_13_391
*359 FILLER_13_393
*360 FILLER_13_405
*361 FILLER_13_51
*362 FILLER_13_55
*363 FILLER_13_57
*364 FILLER_13_69
*365 FILLER_13_81
*366 FILLER_13_93
*367 FILLER_14_109
*368 FILLER_14_121
*369 FILLER_14_133
*370 FILLER_14_137
*371 FILLER_14_139
*372 FILLER_14_141
*373 FILLER_14_15
*374 FILLER_14_153
*375 FILLER_14_165
*376 FILLER_14_177
*377 FILLER_14_189
*378 FILLER_14_193
*379 FILLER_14_195
*380 FILLER_14_197
*381 FILLER_14_209
*382 FILLER_14_221
*383 FILLER_14_233
*384 FILLER_14_245
*385 FILLER_14_249
*386 FILLER_14_251
*387 FILLER_14_253
*388 FILLER_14_265
*389 FILLER_14_27
*390 FILLER_14_277
*391 FILLER_14_289
*392 FILLER_14_29
*393 FILLER_14_3
*394 FILLER_14_301
*395 FILLER_14_305
*396 FILLER_14_307
*397 FILLER_14_309
*398 FILLER_14_321
*399 FILLER_14_333
*400 FILLER_14_345
*401 FILLER_14_357
*402 FILLER_14_361
*403 FILLER_14_363
*404 FILLER_14_365
*405 FILLER_14_377
*406 FILLER_14_389
*407 FILLER_14_401
*408 FILLER_14_405
*409 FILLER_14_41
*410 FILLER_14_53
*411 FILLER_14_65
*412 FILLER_14_77
*413 FILLER_14_81
*414 FILLER_14_83
*415 FILLER_14_85
*416 FILLER_14_97
*417 FILLER_15_105
*418 FILLER_15_109
*419 FILLER_15_111
*420 FILLER_15_113
*421 FILLER_15_125
*422 FILLER_15_137
*423 FILLER_15_149
*424 FILLER_15_15
*425 FILLER_15_161
*426 FILLER_15_165
*427 FILLER_15_167
*428 FILLER_15_169
*429 FILLER_15_181
*430 FILLER_15_193
*431 FILLER_15_205
*432 FILLER_15_217
*433 FILLER_15_221
*434 FILLER_15_223
*435 FILLER_15_225
*436 FILLER_15_237
*437 FILLER_15_249
*438 FILLER_15_261
*439 FILLER_15_27
*440 FILLER_15_273
*441 FILLER_15_277
*442 FILLER_15_279
*443 FILLER_15_281
*444 FILLER_15_293
*445 FILLER_15_3
*446 FILLER_15_305
*447 FILLER_15_317
*448 FILLER_15_329
*449 FILLER_15_333
*450 FILLER_15_335
*451 FILLER_15_337
*452 FILLER_15_349
*453 FILLER_15_361
*454 FILLER_15_373
*455 FILLER_15_385
*456 FILLER_15_389
*457 FILLER_15_39
*458 FILLER_15_391
*459 FILLER_15_393
*460 FILLER_15_405
*461 FILLER_15_51
*462 FILLER_15_55
*463 FILLER_15_57
*464 FILLER_15_69
*465 FILLER_15_81
*466 FILLER_15_93
*467 FILLER_16_109
*468 FILLER_16_121
*469 FILLER_16_133
*470 FILLER_16_137
*471 FILLER_16_139
*472 FILLER_16_141
*473 FILLER_16_15
*474 FILLER_16_153
*475 FILLER_16_165
*476 FILLER_16_177
*477 FILLER_16_189
*478 FILLER_16_193
*479 FILLER_16_195
*480 FILLER_16_197
*481 FILLER_16_209
*482 FILLER_16_221
*483 FILLER_16_233
*484 FILLER_16_245
*485 FILLER_16_249
*486 FILLER_16_251
*487 FILLER_16_253
*488 FILLER_16_265
*489 FILLER_16_27
*490 FILLER_16_277
*491 FILLER_16_289
*492 FILLER_16_29
*493 FILLER_16_3
*494 FILLER_16_301
*495 FILLER_16_305
*496 FILLER_16_307
*497 FILLER_16_309
*498 FILLER_16_321
*499 FILLER_16_333
*500 FILLER_16_345
*501 FILLER_16_357
*502 FILLER_16_361
*503 FILLER_16_363
*504 FILLER_16_365
*505 FILLER_16_377
*506 FILLER_16_389
*507 FILLER_16_401
*508 FILLER_16_405
*509 FILLER_16_41
*510 FILLER_16_53
*511 FILLER_16_65
*512 FILLER_16_77
*513 FILLER_16_81
*514 FILLER_16_83
*515 FILLER_16_85
*516 FILLER_16_97
*517 FILLER_17_105
*518 FILLER_17_109
*519 FILLER_17_111
*520 FILLER_17_113
*521 FILLER_17_125
*522 FILLER_17_137
*523 FILLER_17_149
*524 FILLER_17_15
*525 FILLER_17_161
*526 FILLER_17_165
*527 FILLER_17_167
*528 FILLER_17_169
*529 FILLER_17_181
*530 FILLER_17_193
*531 FILLER_17_205
*532 FILLER_17_217
*533 FILLER_17_221
*534 FILLER_17_223
*535 FILLER_17_225
*536 FILLER_17_237
*537 FILLER_17_249
*538 FILLER_17_261
*539 FILLER_17_27
*540 FILLER_17_273
*541 FILLER_17_277
*542 FILLER_17_279
*543 FILLER_17_281
*544 FILLER_17_293
*545 FILLER_17_3
*546 FILLER_17_305
*547 FILLER_17_317
*548 FILLER_17_329
*549 FILLER_17_333
*550 FILLER_17_335
*551 FILLER_17_337
*552 FILLER_17_349
*553 FILLER_17_361
*554 FILLER_17_373
*555 FILLER_17_385
*556 FILLER_17_389
*557 FILLER_17_39
*558 FILLER_17_391
*559 FILLER_17_393
*560 FILLER_17_405
*561 FILLER_17_51
*562 FILLER_17_55
*563 FILLER_17_57
*564 FILLER_17_69
*565 FILLER_17_81
*566 FILLER_17_93
*567 FILLER_18_109
*568 FILLER_18_121
*569 FILLER_18_133
*570 FILLER_18_137
*571 FILLER_18_139
*572 FILLER_18_141
*573 FILLER_18_15
*574 FILLER_18_153
*575 FILLER_18_165
*576 FILLER_18_177
*577 FILLER_18_189
*578 FILLER_18_193
*579 FILLER_18_195
*580 FILLER_18_197
*581 FILLER_18_209
*582 FILLER_18_221
*583 FILLER_18_233
*584 FILLER_18_245
*585 FILLER_18_249
*586 FILLER_18_251
*587 FILLER_18_253
*588 FILLER_18_265
*589 FILLER_18_27
*590 FILLER_18_277
*591 FILLER_18_289
*592 FILLER_18_29
*593 FILLER_18_3
*594 FILLER_18_301
*595 FILLER_18_305
*596 FILLER_18_307
*597 FILLER_18_309
*598 FILLER_18_321
*599 FILLER_18_333
*600 FILLER_18_345
*601 FILLER_18_357
*602 FILLER_18_361
*603 FILLER_18_363
*604 FILLER_18_365
*605 FILLER_18_377
*606 FILLER_18_389
*607 FILLER_18_401
*608 FILLER_18_405
*609 FILLER_18_41
*610 FILLER_18_53
*611 FILLER_18_65
*612 FILLER_18_77
*613 FILLER_18_81
*614 FILLER_18_83
*615 FILLER_18_85
*616 FILLER_18_97
*617 FILLER_19_105
*618 FILLER_19_109
*619 FILLER_19_111
*620 FILLER_19_113
*621 FILLER_19_125
*622 FILLER_19_137
*623 FILLER_19_149
*624 FILLER_19_15
*625 FILLER_19_161
*626 FILLER_19_165
*627 FILLER_19_167
*628 FILLER_19_169
*629 FILLER_19_181
*630 FILLER_19_193
*631 FILLER_19_195
*632 FILLER_19_202
*633 FILLER_19_204
*634 FILLER_19_208
*635 FILLER_19_220
*636 FILLER_19_225
*637 FILLER_19_237
*638 FILLER_19_249
*639 FILLER_19_261
*640 FILLER_19_27
*641 FILLER_19_273
*642 FILLER_19_277
*643 FILLER_19_279
*644 FILLER_19_281
*645 FILLER_19_293
*646 FILLER_19_3
*647 FILLER_19_305
*648 FILLER_19_317
*649 FILLER_19_329
*650 FILLER_19_333
*651 FILLER_19_335
*652 FILLER_19_337
*653 FILLER_19_349
*654 FILLER_19_361
*655 FILLER_19_373
*656 FILLER_19_385
*657 FILLER_19_389
*658 FILLER_19_39
*659 FILLER_19_391
*660 FILLER_19_393
*661 FILLER_19_405
*662 FILLER_19_51
*663 FILLER_19_55
*664 FILLER_19_57
*665 FILLER_19_69
*666 FILLER_19_81
*667 FILLER_19_93
*668 FILLER_1_105
*669 FILLER_1_109
*670 FILLER_1_111
*671 FILLER_1_113
*672 FILLER_1_125
*673 FILLER_1_137
*674 FILLER_1_149
*675 FILLER_1_15
*676 FILLER_1_161
*677 FILLER_1_165
*678 FILLER_1_167
*679 FILLER_1_169
*680 FILLER_1_181
*681 FILLER_1_193
*682 FILLER_1_205
*683 FILLER_1_217
*684 FILLER_1_221
*685 FILLER_1_223
*686 FILLER_1_225
*687 FILLER_1_237
*688 FILLER_1_249
*689 FILLER_1_261
*690 FILLER_1_27
*691 FILLER_1_273
*692 FILLER_1_277
*693 FILLER_1_279
*694 FILLER_1_281
*695 FILLER_1_293
*696 FILLER_1_3
*697 FILLER_1_305
*698 FILLER_1_317
*699 FILLER_1_329
*700 FILLER_1_333
*701 FILLER_1_335
*702 FILLER_1_337
*703 FILLER_1_349
*704 FILLER_1_361
*705 FILLER_1_373
*706 FILLER_1_385
*707 FILLER_1_389
*708 FILLER_1_39
*709 FILLER_1_391
*710 FILLER_1_393
*711 FILLER_1_405
*712 FILLER_1_51
*713 FILLER_1_55
*714 FILLER_1_57
*715 FILLER_1_69
*716 FILLER_1_81
*717 FILLER_1_93
*718 FILLER_20_109
*719 FILLER_20_121
*720 FILLER_20_133
*721 FILLER_20_137
*722 FILLER_20_139
*723 FILLER_20_141
*724 FILLER_20_15
*725 FILLER_20_153
*726 FILLER_20_165
*727 FILLER_20_177
*728 FILLER_20_189
*729 FILLER_20_193
*730 FILLER_20_195
*731 FILLER_20_219
*732 FILLER_20_231
*733 FILLER_20_244
*734 FILLER_20_253
*735 FILLER_20_265
*736 FILLER_20_27
*737 FILLER_20_277
*738 FILLER_20_289
*739 FILLER_20_29
*740 FILLER_20_3
*741 FILLER_20_301
*742 FILLER_20_305
*743 FILLER_20_307
*744 FILLER_20_309
*745 FILLER_20_321
*746 FILLER_20_333
*747 FILLER_20_345
*748 FILLER_20_357
*749 FILLER_20_361
*750 FILLER_20_363
*751 FILLER_20_365
*752 FILLER_20_377
*753 FILLER_20_389
*754 FILLER_20_401
*755 FILLER_20_405
*756 FILLER_20_41
*757 FILLER_20_53
*758 FILLER_20_65
*759 FILLER_20_77
*760 FILLER_20_81
*761 FILLER_20_83
*762 FILLER_20_85
*763 FILLER_20_97
*764 FILLER_21_105
*765 FILLER_21_109
*766 FILLER_21_111
*767 FILLER_21_113
*768 FILLER_21_125
*769 FILLER_21_137
*770 FILLER_21_149
*771 FILLER_21_15
*772 FILLER_21_161
*773 FILLER_21_165
*774 FILLER_21_167
*775 FILLER_21_169
*776 FILLER_21_181
*777 FILLER_21_193
*778 FILLER_21_208
*779 FILLER_21_220
*780 FILLER_21_225
*781 FILLER_21_233
*782 FILLER_21_251
*783 FILLER_21_263
*784 FILLER_21_27
*785 FILLER_21_275
*786 FILLER_21_279
*787 FILLER_21_281
*788 FILLER_21_293
*789 FILLER_21_3
*790 FILLER_21_305
*791 FILLER_21_317
*792 FILLER_21_329
*793 FILLER_21_333
*794 FILLER_21_335
*795 FILLER_21_337
*796 FILLER_21_349
*797 FILLER_21_361
*798 FILLER_21_373
*799 FILLER_21_385
*800 FILLER_21_389
*801 FILLER_21_39
*802 FILLER_21_391
*803 FILLER_21_393
*804 FILLER_21_405
*805 FILLER_21_51
*806 FILLER_21_55
*807 FILLER_21_57
*808 FILLER_21_69
*809 FILLER_21_81
*810 FILLER_21_93
*811 FILLER_22_109
*812 FILLER_22_121
*813 FILLER_22_133
*814 FILLER_22_137
*815 FILLER_22_139
*816 FILLER_22_141
*817 FILLER_22_15
*818 FILLER_22_153
*819 FILLER_22_165
*820 FILLER_22_177
*821 FILLER_22_189
*822 FILLER_22_193
*823 FILLER_22_195
*824 FILLER_22_203
*825 FILLER_22_215
*826 FILLER_22_224
*827 FILLER_22_236
*828 FILLER_22_248
*829 FILLER_22_260
*830 FILLER_22_27
*831 FILLER_22_272
*832 FILLER_22_284
*833 FILLER_22_29
*834 FILLER_22_296
*835 FILLER_22_3
*836 FILLER_22_309
*837 FILLER_22_321
*838 FILLER_22_333
*839 FILLER_22_345
*840 FILLER_22_357
*841 FILLER_22_361
*842 FILLER_22_363
*843 FILLER_22_365
*844 FILLER_22_377
*845 FILLER_22_389
*846 FILLER_22_401
*847 FILLER_22_405
*848 FILLER_22_41
*849 FILLER_22_53
*850 FILLER_22_65
*851 FILLER_22_77
*852 FILLER_22_81
*853 FILLER_22_83
*854 FILLER_22_85
*855 FILLER_22_97
*856 FILLER_23_105
*857 FILLER_23_109
*858 FILLER_23_111
*859 FILLER_23_113
*860 FILLER_23_125
*861 FILLER_23_137
*862 FILLER_23_149
*863 FILLER_23_15
*864 FILLER_23_161
*865 FILLER_23_165
*866 FILLER_23_167
*867 FILLER_23_169
*868 FILLER_23_181
*869 FILLER_23_193
*870 FILLER_23_205
*871 FILLER_23_217
*872 FILLER_23_221
*873 FILLER_23_223
*874 FILLER_23_225
*875 FILLER_23_237
*876 FILLER_23_249
*877 FILLER_23_261
*878 FILLER_23_27
*879 FILLER_23_273
*880 FILLER_23_277
*881 FILLER_23_279
*882 FILLER_23_281
*883 FILLER_23_293
*884 FILLER_23_3
*885 FILLER_23_305
*886 FILLER_23_317
*887 FILLER_23_329
*888 FILLER_23_333
*889 FILLER_23_335
*890 FILLER_23_337
*891 FILLER_23_349
*892 FILLER_23_361
*893 FILLER_23_373
*894 FILLER_23_385
*895 FILLER_23_389
*896 FILLER_23_39
*897 FILLER_23_391
*898 FILLER_23_393
*899 FILLER_23_405
*900 FILLER_23_51
*901 FILLER_23_55
*902 FILLER_23_57
*903 FILLER_23_69
*904 FILLER_23_81
*905 FILLER_23_93
*906 FILLER_24_109
*907 FILLER_24_121
*908 FILLER_24_133
*909 FILLER_24_137
*910 FILLER_24_139
*911 FILLER_24_141
*912 FILLER_24_15
*913 FILLER_24_153
*914 FILLER_24_165
*915 FILLER_24_177
*916 FILLER_24_189
*917 FILLER_24_193
*918 FILLER_24_195
*919 FILLER_24_197
*920 FILLER_24_209
*921 FILLER_24_221
*922 FILLER_24_233
*923 FILLER_24_245
*924 FILLER_24_249
*925 FILLER_24_251
*926 FILLER_24_253
*927 FILLER_24_265
*928 FILLER_24_27
*929 FILLER_24_277
*930 FILLER_24_289
*931 FILLER_24_29
*932 FILLER_24_3
*933 FILLER_24_301
*934 FILLER_24_305
*935 FILLER_24_307
*936 FILLER_24_309
*937 FILLER_24_321
*938 FILLER_24_333
*939 FILLER_24_345
*940 FILLER_24_357
*941 FILLER_24_361
*942 FILLER_24_363
*943 FILLER_24_365
*944 FILLER_24_377
*945 FILLER_24_389
*946 FILLER_24_401
*947 FILLER_24_405
*948 FILLER_24_41
*949 FILLER_24_53
*950 FILLER_24_65
*951 FILLER_24_77
*952 FILLER_24_81
*953 FILLER_24_83
*954 FILLER_24_85
*955 FILLER_24_97
*956 FILLER_25_105
*957 FILLER_25_109
*958 FILLER_25_111
*959 FILLER_25_113
*960 FILLER_25_125
*961 FILLER_25_137
*962 FILLER_25_149
*963 FILLER_25_15
*964 FILLER_25_157
*965 FILLER_25_159
*966 FILLER_25_167
*967 FILLER_25_169
*968 FILLER_25_181
*969 FILLER_25_193
*970 FILLER_25_205
*971 FILLER_25_217
*972 FILLER_25_221
*973 FILLER_25_223
*974 FILLER_25_235
*975 FILLER_25_247
*976 FILLER_25_259
*977 FILLER_25_27
*978 FILLER_25_271
*979 FILLER_25_279
*980 FILLER_25_281
*981 FILLER_25_293
*982 FILLER_25_3
*983 FILLER_25_305
*984 FILLER_25_317
*985 FILLER_25_329
*986 FILLER_25_333
*987 FILLER_25_335
*988 FILLER_25_337
*989 FILLER_25_349
*990 FILLER_25_361
*991 FILLER_25_373
*992 FILLER_25_385
*993 FILLER_25_389
*994 FILLER_25_39
*995 FILLER_25_391
*996 FILLER_25_393
*997 FILLER_25_405
*998 FILLER_25_51
*999 FILLER_25_55
*1000 FILLER_25_57
*1001 FILLER_25_69
*1002 FILLER_25_81
*1003 FILLER_25_93
*1004 FILLER_26_109
*1005 FILLER_26_121
*1006 FILLER_26_133
*1007 FILLER_26_137
*1008 FILLER_26_139
*1009 FILLER_26_141
*1010 FILLER_26_15
*1011 FILLER_26_153
*1012 FILLER_26_165
*1013 FILLER_26_177
*1014 FILLER_26_189
*1015 FILLER_26_193
*1016 FILLER_26_195
*1017 FILLER_26_197
*1018 FILLER_26_209
*1019 FILLER_26_221
*1020 FILLER_26_233
*1021 FILLER_26_245
*1022 FILLER_26_249
*1023 FILLER_26_251
*1024 FILLER_26_257
*1025 FILLER_26_269
*1026 FILLER_26_27
*1027 FILLER_26_281
*1028 FILLER_26_29
*1029 FILLER_26_293
*1030 FILLER_26_3
*1031 FILLER_26_305
*1032 FILLER_26_307
*1033 FILLER_26_309
*1034 FILLER_26_321
*1035 FILLER_26_333
*1036 FILLER_26_345
*1037 FILLER_26_357
*1038 FILLER_26_361
*1039 FILLER_26_363
*1040 FILLER_26_365
*1041 FILLER_26_377
*1042 FILLER_26_389
*1043 FILLER_26_401
*1044 FILLER_26_405
*1045 FILLER_26_41
*1046 FILLER_26_53
*1047 FILLER_26_65
*1048 FILLER_26_77
*1049 FILLER_26_81
*1050 FILLER_26_83
*1051 FILLER_26_85
*1052 FILLER_26_97
*1053 FILLER_27_105
*1054 FILLER_27_109
*1055 FILLER_27_111
*1056 FILLER_27_113
*1057 FILLER_27_125
*1058 FILLER_27_137
*1059 FILLER_27_149
*1060 FILLER_27_15
*1061 FILLER_27_161
*1062 FILLER_27_165
*1063 FILLER_27_167
*1064 FILLER_27_176
*1065 FILLER_27_188
*1066 FILLER_27_200
*1067 FILLER_27_216
*1068 FILLER_27_225
*1069 FILLER_27_237
*1070 FILLER_27_249
*1071 FILLER_27_257
*1072 FILLER_27_269
*1073 FILLER_27_27
*1074 FILLER_27_277
*1075 FILLER_27_279
*1076 FILLER_27_281
*1077 FILLER_27_293
*1078 FILLER_27_3
*1079 FILLER_27_305
*1080 FILLER_27_317
*1081 FILLER_27_329
*1082 FILLER_27_333
*1083 FILLER_27_335
*1084 FILLER_27_337
*1085 FILLER_27_349
*1086 FILLER_27_361
*1087 FILLER_27_373
*1088 FILLER_27_385
*1089 FILLER_27_389
*1090 FILLER_27_39
*1091 FILLER_27_391
*1092 FILLER_27_393
*1093 FILLER_27_405
*1094 FILLER_27_51
*1095 FILLER_27_55
*1096 FILLER_27_57
*1097 FILLER_27_69
*1098 FILLER_27_81
*1099 FILLER_27_93
*1100 FILLER_28_109
*1101 FILLER_28_121
*1102 FILLER_28_133
*1103 FILLER_28_137
*1104 FILLER_28_139
*1105 FILLER_28_141
*1106 FILLER_28_15
*1107 FILLER_28_153
*1108 FILLER_28_165
*1109 FILLER_28_177
*1110 FILLER_28_189
*1111 FILLER_28_193
*1112 FILLER_28_195
*1113 FILLER_28_197
*1114 FILLER_28_209
*1115 FILLER_28_221
*1116 FILLER_28_230
*1117 FILLER_28_242
*1118 FILLER_28_250
*1119 FILLER_28_253
*1120 FILLER_28_267
*1121 FILLER_28_27
*1122 FILLER_28_279
*1123 FILLER_28_29
*1124 FILLER_28_291
*1125 FILLER_28_3
*1126 FILLER_28_303
*1127 FILLER_28_307
*1128 FILLER_28_309
*1129 FILLER_28_321
*1130 FILLER_28_333
*1131 FILLER_28_345
*1132 FILLER_28_357
*1133 FILLER_28_361
*1134 FILLER_28_363
*1135 FILLER_28_365
*1136 FILLER_28_377
*1137 FILLER_28_389
*1138 FILLER_28_401
*1139 FILLER_28_405
*1140 FILLER_28_41
*1141 FILLER_28_53
*1142 FILLER_28_65
*1143 FILLER_28_77
*1144 FILLER_28_81
*1145 FILLER_28_83
*1146 FILLER_28_85
*1147 FILLER_28_97
*1148 FILLER_29_105
*1149 FILLER_29_109
*1150 FILLER_29_111
*1151 FILLER_29_113
*1152 FILLER_29_125
*1153 FILLER_29_137
*1154 FILLER_29_149
*1155 FILLER_29_15
*1156 FILLER_29_161
*1157 FILLER_29_165
*1158 FILLER_29_167
*1159 FILLER_29_169
*1160 FILLER_29_181
*1161 FILLER_29_193
*1162 FILLER_29_203
*1163 FILLER_29_215
*1164 FILLER_29_223
*1165 FILLER_29_225
*1166 FILLER_29_242
*1167 FILLER_29_254
*1168 FILLER_29_266
*1169 FILLER_29_27
*1170 FILLER_29_278
*1171 FILLER_29_281
*1172 FILLER_29_293
*1173 FILLER_29_3
*1174 FILLER_29_305
*1175 FILLER_29_317
*1176 FILLER_29_329
*1177 FILLER_29_333
*1178 FILLER_29_335
*1179 FILLER_29_337
*1180 FILLER_29_349
*1181 FILLER_29_361
*1182 FILLER_29_373
*1183 FILLER_29_385
*1184 FILLER_29_389
*1185 FILLER_29_39
*1186 FILLER_29_391
*1187 FILLER_29_393
*1188 FILLER_29_405
*1189 FILLER_29_51
*1190 FILLER_29_55
*1191 FILLER_29_57
*1192 FILLER_29_69
*1193 FILLER_29_81
*1194 FILLER_29_93
*1195 FILLER_2_109
*1196 FILLER_2_121
*1197 FILLER_2_133
*1198 FILLER_2_137
*1199 FILLER_2_139
*1200 FILLER_2_141
*1201 FILLER_2_15
*1202 FILLER_2_153
*1203 FILLER_2_165
*1204 FILLER_2_177
*1205 FILLER_2_189
*1206 FILLER_2_193
*1207 FILLER_2_195
*1208 FILLER_2_197
*1209 FILLER_2_209
*1210 FILLER_2_221
*1211 FILLER_2_233
*1212 FILLER_2_245
*1213 FILLER_2_249
*1214 FILLER_2_251
*1215 FILLER_2_253
*1216 FILLER_2_265
*1217 FILLER_2_27
*1218 FILLER_2_277
*1219 FILLER_2_289
*1220 FILLER_2_29
*1221 FILLER_2_3
*1222 FILLER_2_301
*1223 FILLER_2_305
*1224 FILLER_2_307
*1225 FILLER_2_309
*1226 FILLER_2_321
*1227 FILLER_2_333
*1228 FILLER_2_345
*1229 FILLER_2_357
*1230 FILLER_2_361
*1231 FILLER_2_363
*1232 FILLER_2_365
*1233 FILLER_2_377
*1234 FILLER_2_389
*1235 FILLER_2_401
*1236 FILLER_2_405
*1237 FILLER_2_41
*1238 FILLER_2_53
*1239 FILLER_2_65
*1240 FILLER_2_77
*1241 FILLER_2_81
*1242 FILLER_2_83
*1243 FILLER_2_85
*1244 FILLER_2_97
*1245 FILLER_30_109
*1246 FILLER_30_121
*1247 FILLER_30_133
*1248 FILLER_30_137
*1249 FILLER_30_139
*1250 FILLER_30_141
*1251 FILLER_30_145
*1252 FILLER_30_147
*1253 FILLER_30_154
*1254 FILLER_30_166
*1255 FILLER_30_178
*1256 FILLER_30_19
*1257 FILLER_30_190
*1258 FILLER_30_194
*1259 FILLER_30_197
*1260 FILLER_30_209
*1261 FILLER_30_221
*1262 FILLER_30_233
*1263 FILLER_30_245
*1264 FILLER_30_249
*1265 FILLER_30_251
*1266 FILLER_30_253
*1267 FILLER_30_257
*1268 FILLER_30_259
*1269 FILLER_30_27
*1270 FILLER_30_272
*1271 FILLER_30_284
*1272 FILLER_30_29
*1273 FILLER_30_296
*1274 FILLER_30_309
*1275 FILLER_30_321
*1276 FILLER_30_333
*1277 FILLER_30_345
*1278 FILLER_30_357
*1279 FILLER_30_361
*1280 FILLER_30_363
*1281 FILLER_30_365
*1282 FILLER_30_377
*1283 FILLER_30_389
*1284 FILLER_30_401
*1285 FILLER_30_41
*1286 FILLER_30_53
*1287 FILLER_30_65
*1288 FILLER_30_7
*1289 FILLER_30_77
*1290 FILLER_30_81
*1291 FILLER_30_83
*1292 FILLER_30_85
*1293 FILLER_30_97
*1294 FILLER_31_105
*1295 FILLER_31_109
*1296 FILLER_31_111
*1297 FILLER_31_113
*1298 FILLER_31_125
*1299 FILLER_31_137
*1300 FILLER_31_166
*1301 FILLER_31_172
*1302 FILLER_31_184
*1303 FILLER_31_19
*1304 FILLER_31_192
*1305 FILLER_31_201
*1306 FILLER_31_209
*1307 FILLER_31_221
*1308 FILLER_31_223
*1309 FILLER_31_225
*1310 FILLER_31_237
*1311 FILLER_31_249
*1312 FILLER_31_261
*1313 FILLER_31_268
*1314 FILLER_31_281
*1315 FILLER_31_293
*1316 FILLER_31_305
*1317 FILLER_31_31
*1318 FILLER_31_317
*1319 FILLER_31_329
*1320 FILLER_31_333
*1321 FILLER_31_335
*1322 FILLER_31_337
*1323 FILLER_31_349
*1324 FILLER_31_361
*1325 FILLER_31_373
*1326 FILLER_31_385
*1327 FILLER_31_389
*1328 FILLER_31_391
*1329 FILLER_31_393
*1330 FILLER_31_405
*1331 FILLER_31_43
*1332 FILLER_31_55
*1333 FILLER_31_57
*1334 FILLER_31_69
*1335 FILLER_31_7
*1336 FILLER_31_81
*1337 FILLER_31_93
*1338 FILLER_32_109
*1339 FILLER_32_121
*1340 FILLER_32_133
*1341 FILLER_32_137
*1342 FILLER_32_139
*1343 FILLER_32_141
*1344 FILLER_32_153
*1345 FILLER_32_165
*1346 FILLER_32_177
*1347 FILLER_32_189
*1348 FILLER_32_193
*1349 FILLER_32_195
*1350 FILLER_32_197
*1351 FILLER_32_209
*1352 FILLER_32_21
*1353 FILLER_32_221
*1354 FILLER_32_233
*1355 FILLER_32_245
*1356 FILLER_32_249
*1357 FILLER_32_25
*1358 FILLER_32_251
*1359 FILLER_32_253
*1360 FILLER_32_265
*1361 FILLER_32_27
*1362 FILLER_32_277
*1363 FILLER_32_289
*1364 FILLER_32_29
*1365 FILLER_32_301
*1366 FILLER_32_305
*1367 FILLER_32_307
*1368 FILLER_32_309
*1369 FILLER_32_321
*1370 FILLER_32_333
*1371 FILLER_32_345
*1372 FILLER_32_357
*1373 FILLER_32_361
*1374 FILLER_32_363
*1375 FILLER_32_365
*1376 FILLER_32_377
*1377 FILLER_32_389
*1378 FILLER_32_401
*1379 FILLER_32_41
*1380 FILLER_32_53
*1381 FILLER_32_65
*1382 FILLER_32_77
*1383 FILLER_32_81
*1384 FILLER_32_83
*1385 FILLER_32_85
*1386 FILLER_32_9
*1387 FILLER_32_97
*1388 FILLER_33_105
*1389 FILLER_33_109
*1390 FILLER_33_111
*1391 FILLER_33_113
*1392 FILLER_33_125
*1393 FILLER_33_137
*1394 FILLER_33_149
*1395 FILLER_33_15
*1396 FILLER_33_161
*1397 FILLER_33_165
*1398 FILLER_33_167
*1399 FILLER_33_169
*1400 FILLER_33_181
*1401 FILLER_33_185
*1402 FILLER_33_191
*1403 FILLER_33_206
*1404 FILLER_33_218
*1405 FILLER_33_222
*1406 FILLER_33_225
*1407 FILLER_33_237
*1408 FILLER_33_249
*1409 FILLER_33_261
*1410 FILLER_33_27
*1411 FILLER_33_273
*1412 FILLER_33_277
*1413 FILLER_33_279
*1414 FILLER_33_281
*1415 FILLER_33_293
*1416 FILLER_33_3
*1417 FILLER_33_305
*1418 FILLER_33_317
*1419 FILLER_33_329
*1420 FILLER_33_333
*1421 FILLER_33_335
*1422 FILLER_33_337
*1423 FILLER_33_349
*1424 FILLER_33_361
*1425 FILLER_33_373
*1426 FILLER_33_385
*1427 FILLER_33_389
*1428 FILLER_33_39
*1429 FILLER_33_391
*1430 FILLER_33_393
*1431 FILLER_33_405
*1432 FILLER_33_51
*1433 FILLER_33_55
*1434 FILLER_33_57
*1435 FILLER_33_69
*1436 FILLER_33_81
*1437 FILLER_33_93
*1438 FILLER_34_109
*1439 FILLER_34_121
*1440 FILLER_34_133
*1441 FILLER_34_137
*1442 FILLER_34_139
*1443 FILLER_34_141
*1444 FILLER_34_15
*1445 FILLER_34_153
*1446 FILLER_34_165
*1447 FILLER_34_177
*1448 FILLER_34_189
*1449 FILLER_34_193
*1450 FILLER_34_195
*1451 FILLER_34_197
*1452 FILLER_34_209
*1453 FILLER_34_221
*1454 FILLER_34_233
*1455 FILLER_34_245
*1456 FILLER_34_268
*1457 FILLER_34_27
*1458 FILLER_34_280
*1459 FILLER_34_29
*1460 FILLER_34_292
*1461 FILLER_34_3
*1462 FILLER_34_304
*1463 FILLER_34_309
*1464 FILLER_34_321
*1465 FILLER_34_333
*1466 FILLER_34_345
*1467 FILLER_34_357
*1468 FILLER_34_361
*1469 FILLER_34_363
*1470 FILLER_34_365
*1471 FILLER_34_377
*1472 FILLER_34_385
*1473 FILLER_34_392
*1474 FILLER_34_400
*1475 FILLER_34_402
*1476 FILLER_34_41
*1477 FILLER_34_53
*1478 FILLER_34_65
*1479 FILLER_34_77
*1480 FILLER_34_81
*1481 FILLER_34_83
*1482 FILLER_34_85
*1483 FILLER_34_97
*1484 FILLER_35_105
*1485 FILLER_35_109
*1486 FILLER_35_111
*1487 FILLER_35_113
*1488 FILLER_35_125
*1489 FILLER_35_137
*1490 FILLER_35_149
*1491 FILLER_35_15
*1492 FILLER_35_161
*1493 FILLER_35_165
*1494 FILLER_35_167
*1495 FILLER_35_169
*1496 FILLER_35_181
*1497 FILLER_35_193
*1498 FILLER_35_205
*1499 FILLER_35_217
*1500 FILLER_35_221
*1501 FILLER_35_223
*1502 FILLER_35_225
*1503 FILLER_35_237
*1504 FILLER_35_241
*1505 FILLER_35_250
*1506 FILLER_35_262
*1507 FILLER_35_267
*1508 FILLER_35_27
*1509 FILLER_35_279
*1510 FILLER_35_281
*1511 FILLER_35_293
*1512 FILLER_35_3
*1513 FILLER_35_305
*1514 FILLER_35_317
*1515 FILLER_35_329
*1516 FILLER_35_333
*1517 FILLER_35_335
*1518 FILLER_35_337
*1519 FILLER_35_349
*1520 FILLER_35_361
*1521 FILLER_35_373
*1522 FILLER_35_385
*1523 FILLER_35_389
*1524 FILLER_35_39
*1525 FILLER_35_391
*1526 FILLER_35_393
*1527 FILLER_35_401
*1528 FILLER_35_51
*1529 FILLER_35_55
*1530 FILLER_35_57
*1531 FILLER_35_69
*1532 FILLER_35_81
*1533 FILLER_35_93
*1534 FILLER_36_109
*1535 FILLER_36_121
*1536 FILLER_36_133
*1537 FILLER_36_137
*1538 FILLER_36_139
*1539 FILLER_36_141
*1540 FILLER_36_15
*1541 FILLER_36_153
*1542 FILLER_36_165
*1543 FILLER_36_177
*1544 FILLER_36_189
*1545 FILLER_36_193
*1546 FILLER_36_195
*1547 FILLER_36_197
*1548 FILLER_36_208
*1549 FILLER_36_220
*1550 FILLER_36_232
*1551 FILLER_36_244
*1552 FILLER_36_253
*1553 FILLER_36_255
*1554 FILLER_36_262
*1555 FILLER_36_27
*1556 FILLER_36_274
*1557 FILLER_36_286
*1558 FILLER_36_29
*1559 FILLER_36_298
*1560 FILLER_36_3
*1561 FILLER_36_306
*1562 FILLER_36_309
*1563 FILLER_36_321
*1564 FILLER_36_333
*1565 FILLER_36_345
*1566 FILLER_36_357
*1567 FILLER_36_361
*1568 FILLER_36_363
*1569 FILLER_36_365
*1570 FILLER_36_377
*1571 FILLER_36_389
*1572 FILLER_36_401
*1573 FILLER_36_405
*1574 FILLER_36_41
*1575 FILLER_36_53
*1576 FILLER_36_65
*1577 FILLER_36_77
*1578 FILLER_36_81
*1579 FILLER_36_83
*1580 FILLER_36_85
*1581 FILLER_36_97
*1582 FILLER_37_105
*1583 FILLER_37_109
*1584 FILLER_37_111
*1585 FILLER_37_113
*1586 FILLER_37_125
*1587 FILLER_37_137
*1588 FILLER_37_149
*1589 FILLER_37_15
*1590 FILLER_37_161
*1591 FILLER_37_167
*1592 FILLER_37_169
*1593 FILLER_37_181
*1594 FILLER_37_193
*1595 FILLER_37_205
*1596 FILLER_37_217
*1597 FILLER_37_221
*1598 FILLER_37_223
*1599 FILLER_37_225
*1600 FILLER_37_237
*1601 FILLER_37_249
*1602 FILLER_37_253
*1603 FILLER_37_255
*1604 FILLER_37_263